
---------- Begin Simulation Statistics ----------
sim_seconds                                  0.000466                       # Number of seconds simulated
sim_ticks                                      466051                       # Number of ticks simulated
final_tick                                     466051                       # Number of ticks from beginning of simulation (restored from checkpoints and never reset)
sim_freq                                   1000000000                       # Frequency of simulated ticks
host_tick_rate                                 741268                       # Simulator tick rate (ticks/s)
host_mem_usage                                 195356                       # Number of bytes of host memory used
host_seconds                                     0.63                       # Real time elapsed on the host

---------- End Simulation Statistics   ----------
