
---------- Begin Simulation Statistics ----------
sim_seconds                                  0.002878                       # Number of seconds simulated
sim_ticks                                     2877961                       # Number of ticks simulated
final_tick                                    2877961                       # Number of ticks from beginning of simulation (restored from checkpoints and never reset)
sim_freq                                   1000000000                       # Frequency of simulated ticks
host_tick_rate                                3025991                       # Simulator tick rate (ticks/s)
host_mem_usage                                 196396                       # Number of bytes of host memory used
host_seconds                                     0.95                       # Real time elapsed on the host

---------- End Simulation Statistics   ----------
